
clear

Set DefaultBaseFrequency=50

new circuit.name bus1=sourcebus baseKv=11 pu=1.05 angle=0 frequency=50 phases=3 MVAsc1=1000000 MVAsc3=1000000 x1r1=10 x0r0=10

new line.L1 bus1=b1.1.2.3.4 bus2=b2.1.2.3.4 length=0.016647 phases=4 units=km rmatrix=[1.6954 | 1.2494 1.6954 | 1.2494 1.2494 1.6954 | 1.2494 1.2494 1.2494 1.6954 ] xmatrix=[-0.5404 |  -0.6114 -0.5404 | -0.6114 -0.6114 -0.5404 | -0.6114 -0.6114 -0.6114 -0.5404] cmatrix=[0 | 0 0 | 0 0 0 | 0 0 0 0 ] Rg=0 Xg=0
new line.L10 bus1=b9.1.2.3.4 bus2=b11.1.2.3.4 length=0.0064441 phases=4 units=km rmatrix=[1.1669 | 0.01691 1.1669 | 0.01691 0.01691 1.1669 | 0.01691 0.01691 0.01691 1.1669 ] xmatrix=[0.087981 |  -1.8917e-05 0.087981 | -1.8917e-05 -1.8917e-05 0.087981 | -1.8917e-05 -1.8917e-05 -1.8917e-05 0.087981] cmatrix=[0 | 0 0 | 0 0 0 | 0 0 0 0 ] Rg=0 Xg=0
new line.L100 bus1=b99.1.2.3.4 bus2=b101.1.2.3.4 length=0.00069938 phases=4 units=km rmatrix=[1.7887 | 1.3197 1.7887 | 1.3197 1.3197 1.7887 | 1.3197 1.3197 1.3197 1.7887 ] xmatrix=[-0.55184 |  -0.62684 -0.55184 | -0.62684 -0.62684 -0.55184 | -0.62684 -0.62684 -0.62684 -0.55184] cmatrix=[0 | 0 0 | 0 0 0 | 0 0 0 0 ] Rg=0 Xg=0
new line.L101 bus1=b99.1.2.3.4 bus2=b102.1.2.3.4 length=0.00069938 phases=4 units=km rmatrix=[1.7887 | 1.3197 1.7887 | 1.3197 1.3197 1.7887 | 1.3197 1.3197 1.3197 1.7887 ] xmatrix=[-0.55184 |  -0.62684 -0.55184 | -0.62684 -0.62684 -0.55184 | -0.62684 -0.62684 -0.62684 -0.55184] cmatrix=[0 | 0 0 | 0 0 0 | 0 0 0 0 ] Rg=0 Xg=0
new line.L102 bus1=b71.1.2.3.4 bus2=b103.1.2.3.4 length=0.010472 phases=4 units=km rmatrix=[1.1669 | 0.01691 1.1669 | 0.01691 0.01691 1.1669 | 0.01691 0.01691 0.01691 1.1669 ] xmatrix=[0.087981 |  -1.8917e-05 0.087981 | -1.8917e-05 -1.8917e-05 0.087981 | -1.8917e-05 -1.8917e-05 -1.8917e-05 0.087981] cmatrix=[0 | 0 0 | 0 0 0 | 0 0 0 0 ] Rg=0 Xg=0
new line.L103 bus1=b71.1.2.3.4 bus2=b104.1.2.3.4 length=0.0029368 phases=4 units=km rmatrix=[0.8455 | 0.5715 0.8455 | 0.5715 0.5715 0.8455 | 0.5715 0.5715 0.5715 0.8455 ] xmatrix=[-0.43853 |  -0.51153 -0.43853 | -0.51153 -0.51153 -0.43853 | -0.51153 -0.51153 -0.51153 -0.43853] cmatrix=[0 | 0 0 | 0 0 0 | 0 0 0 0 ] Rg=0 Xg=0
new line.L104 bus1=b101.1.2.3.4 bus2=b105.1.2.3.4 length=0.0018857 phases=4 units=km rmatrix=[1.7887 | 1.3197 1.7887 | 1.3197 1.3197 1.7887 | 1.3197 1.3197 1.3197 1.7887 ] xmatrix=[-0.55184 |  -0.62684 -0.55184 | -0.62684 -0.62684 -0.55184 | -0.62684 -0.62684 -0.62684 -0.55184] cmatrix=[0 | 0 0 | 0 0 0 | 0 0 0 0 ] Rg=0 Xg=0
new line.L105 bus1=b101.1.2.3.4 bus2=b106.1.2.3.4 length=0.0018857 phases=4 units=km rmatrix=[1.7887 | 1.3197 1.7887 | 1.3197 1.3197 1.7887 | 1.3197 1.3197 1.3197 1.7887 ] xmatrix=[-0.55184 |  -0.62684 -0.55184 | -0.62684 -0.62684 -0.55184 | -0.62684 -0.62684 -0.62684 -0.55184] cmatrix=[0 | 0 0 | 0 0 0 | 0 0 0 0 ] Rg=0 Xg=0
new line.L106 bus1=b101.1.2.3.4 bus2=b107.1.2.3.4 length=0.010658 phases=4 units=km rmatrix=[1.1669 | 0.01691 1.1669 | 0.01691 0.01691 1.1669 | 0.01691 0.01691 0.01691 1.1669 ] xmatrix=[0.087981 |  -1.8917e-05 0.087981 | -1.8917e-05 -1.8917e-05 0.087981 | -1.8917e-05 -1.8917e-05 -1.8917e-05 0.087981] cmatrix=[0 | 0 0 | 0 0 0 | 0 0 0 0 ] Rg=0 Xg=0
new line.L107 bus1=b105.1.2.3.4 bus2=b108.1.2.3.4 length=0.0013881 phases=4 units=km rmatrix=[1.7887 | 1.3197 1.7887 | 1.3197 1.3197 1.7887 | 1.3197 1.3197 1.3197 1.7887 ] xmatrix=[-0.55184 |  -0.62684 -0.55184 | -0.62684 -0.62684 -0.55184 | -0.62684 -0.62684 -0.62684 -0.55184] cmatrix=[0 | 0 0 | 0 0 0 | 0 0 0 0 ] Rg=0 Xg=0
new line.L108 bus1=b105.1.2.3.4 bus2=b109.1.2.3.4 length=0.0013881 phases=4 units=km rmatrix=[1.7887 | 1.3197 1.7887 | 1.3197 1.3197 1.7887 | 1.3197 1.3197 1.3197 1.7887 ] xmatrix=[-0.55184 |  -0.62684 -0.55184 | -0.62684 -0.62684 -0.55184 | -0.62684 -0.62684 -0.62684 -0.55184] cmatrix=[0 | 0 0 | 0 0 0 | 0 0 0 0 ] Rg=0 Xg=0
new line.L109 bus1=b108.1.2.3.4 bus2=b110.1.2.3.4 length=0.0018899 phases=4 units=km rmatrix=[1.7887 | 1.3197 1.7887 | 1.3197 1.3197 1.7887 | 1.3197 1.3197 1.3197 1.7887 ] xmatrix=[-0.55184 |  -0.62684 -0.55184 | -0.62684 -0.62684 -0.55184 | -0.62684 -0.62684 -0.62684 -0.55184] cmatrix=[0 | 0 0 | 0 0 0 | 0 0 0 0 ] Rg=0 Xg=0
new line.L11 bus1=b9.1.2.3.4 bus2=b12.1.2.3.4 length=0.0061526 phases=4 units=km rmatrix=[1.1669 | 0.01691 1.1669 | 0.01691 0.01691 1.1669 | 0.01691 0.01691 0.01691 1.1669 ] xmatrix=[0.087981 |  -1.8917e-05 0.087981 | -1.8917e-05 -1.8917e-05 0.087981 | -1.8917e-05 -1.8917e-05 -1.8917e-05 0.087981] cmatrix=[0 | 0 0 | 0 0 0 | 0 0 0 0 ] Rg=0 Xg=0
new line.L110 bus1=b108.1.2.3.4 bus2=b111.1.2.3.4 length=0.0018899 phases=4 units=km rmatrix=[1.7887 | 1.3197 1.7887 | 1.3197 1.3197 1.7887 | 1.3197 1.3197 1.3197 1.7887 ] xmatrix=[-0.55184 |  -0.62684 -0.55184 | -0.62684 -0.62684 -0.55184 | -0.62684 -0.62684 -0.62684 -0.55184] cmatrix=[0 | 0 0 | 0 0 0 | 0 0 0 0 ] Rg=0 Xg=0
new line.L111 bus1=b69.1.2.3.4 bus2=b112.1.2.3.4 length=0.0098006 phases=4 units=km rmatrix=[1.1669 | 0.01691 1.1669 | 0.01691 0.01691 1.1669 | 0.01691 0.01691 0.01691 1.1669 ] xmatrix=[0.087981 |  -1.8917e-05 0.087981 | -1.8917e-05 -1.8917e-05 0.087981 | -1.8917e-05 -1.8917e-05 -1.8917e-05 0.087981] cmatrix=[0 | 0 0 | 0 0 0 | 0 0 0 0 ] Rg=0 Xg=0
new line.L112 bus1=b69.1.2.3.4 bus2=b113.1.2.3.4 length=0.0055837 phases=4 units=km rmatrix=[1.1669 | 0.01691 1.1669 | 0.01691 0.01691 1.1669 | 0.01691 0.01691 0.01691 1.1669 ] xmatrix=[0.087981 |  -1.8917e-05 0.087981 | -1.8917e-05 -1.8917e-05 0.087981 | -1.8917e-05 -1.8917e-05 -1.8917e-05 0.087981] cmatrix=[0 | 0 0 | 0 0 0 | 0 0 0 0 ] Rg=0 Xg=0
new line.L113 bus1=b110.1.2.3.4 bus2=b114.1.2.3.4 length=0.0013374 phases=4 units=km rmatrix=[1.7887 | 1.3197 1.7887 | 1.3197 1.3197 1.7887 | 1.3197 1.3197 1.3197 1.7887 ] xmatrix=[-0.55184 |  -0.62684 -0.55184 | -0.62684 -0.62684 -0.55184 | -0.62684 -0.62684 -0.62684 -0.55184] cmatrix=[0 | 0 0 | 0 0 0 | 0 0 0 0 ] Rg=0 Xg=0
new line.L114 bus1=b110.1.2.3.4 bus2=b115.1.2.3.4 length=0.0013374 phases=4 units=km rmatrix=[1.7887 | 1.3197 1.7887 | 1.3197 1.3197 1.7887 | 1.3197 1.3197 1.3197 1.7887 ] xmatrix=[-0.55184 |  -0.62684 -0.55184 | -0.62684 -0.62684 -0.55184 | -0.62684 -0.62684 -0.62684 -0.55184] cmatrix=[0 | 0 0 | 0 0 0 | 0 0 0 0 ] Rg=0 Xg=0
new line.L115 bus1=b114.1.2.3.4 bus2=b116.1.2.3.4 length=0.0037401 phases=4 units=km rmatrix=[1.7887 | 1.3197 1.7887 | 1.3197 1.3197 1.7887 | 1.3197 1.3197 1.3197 1.7887 ] xmatrix=[-0.55184 |  -0.62684 -0.55184 | -0.62684 -0.62684 -0.55184 | -0.62684 -0.62684 -0.62684 -0.55184] cmatrix=[0 | 0 0 | 0 0 0 | 0 0 0 0 ] Rg=0 Xg=0
new line.L116 bus1=b114.1.2.3.4 bus2=b117.1.2.3.4 length=0.0037401 phases=4 units=km rmatrix=[1.7887 | 1.3197 1.7887 | 1.3197 1.3197 1.7887 | 1.3197 1.3197 1.3197 1.7887 ] xmatrix=[-0.55184 |  -0.62684 -0.55184 | -0.62684 -0.62684 -0.55184 | -0.62684 -0.62684 -0.62684 -0.55184] cmatrix=[0 | 0 0 | 0 0 0 | 0 0 0 0 ] Rg=0 Xg=0
new line.L117 bus1=b107.1.2.3.4 bus2=b118.1.2.3.4 length=0.006377 phases=4 units=km rmatrix=[1.1669 | 0.01691 1.1669 | 0.01691 0.01691 1.1669 | 0.01691 0.01691 0.01691 1.1669 ] xmatrix=[0.087981 |  -1.8917e-05 0.087981 | -1.8917e-05 -1.8917e-05 0.087981 | -1.8917e-05 -1.8917e-05 -1.8917e-05 0.087981] cmatrix=[0 | 0 0 | 0 0 0 | 0 0 0 0 ] Rg=0 Xg=0
new line.L118 bus1=b107.1.2.3.4 bus2=b119.1.2.3.4 length=0.0066554 phases=4 units=km rmatrix=[1.1669 | 0.01691 1.1669 | 0.01691 0.01691 1.1669 | 0.01691 0.01691 0.01691 1.1669 ] xmatrix=[0.087981 |  -1.8917e-05 0.087981 | -1.8917e-05 -1.8917e-05 0.087981 | -1.8917e-05 -1.8917e-05 -1.8917e-05 0.087981] cmatrix=[0 | 0 0 | 0 0 0 | 0 0 0 0 ] Rg=0 Xg=0
new line.L119 bus1=b116.1.2.3.4 bus2=b120.1.2.3.4 length=0.0027082 phases=4 units=km rmatrix=[1.7887 | 1.3197 1.7887 | 1.3197 1.3197 1.7887 | 1.3197 1.3197 1.3197 1.7887 ] xmatrix=[-0.55184 |  -0.62684 -0.55184 | -0.62684 -0.62684 -0.55184 | -0.62684 -0.62684 -0.62684 -0.55184] cmatrix=[0 | 0 0 | 0 0 0 | 0 0 0 0 ] Rg=0 Xg=0
new line.L12 bus1=b10.1.2.3.4 bus2=b13.1.2.3.4 length=0.0097762 phases=4 units=km rmatrix=[1.6954 | 1.2494 1.6954 | 1.2494 1.2494 1.6954 | 1.2494 1.2494 1.2494 1.6954 ] xmatrix=[-0.5404 |  -0.6114 -0.5404 | -0.6114 -0.6114 -0.5404 | -0.6114 -0.6114 -0.6114 -0.5404] cmatrix=[0 | 0 0 | 0 0 0 | 0 0 0 0 ] Rg=0 Xg=0
new line.L120 bus1=b116.1.2.3.4 bus2=b121.1.2.3.4 length=0.0027082 phases=4 units=km rmatrix=[1.7887 | 1.3197 1.7887 | 1.3197 1.3197 1.7887 | 1.3197 1.3197 1.3197 1.7887 ] xmatrix=[-0.55184 |  -0.62684 -0.55184 | -0.62684 -0.62684 -0.55184 | -0.62684 -0.62684 -0.62684 -0.55184] cmatrix=[0 | 0 0 | 0 0 0 | 0 0 0 0 ] Rg=0 Xg=0
new line.L121 bus1=b120.1.2.3.4 bus2=b122.1.2.3.4 length=0.00060068 phases=4 units=km rmatrix=[1.7887 | 1.3197 1.7887 | 1.3197 1.3197 1.7887 | 1.3197 1.3197 1.3197 1.7887 ] xmatrix=[-0.55184 |  -0.62684 -0.55184 | -0.62684 -0.62684 -0.55184 | -0.62684 -0.62684 -0.62684 -0.55184] cmatrix=[0 | 0 0 | 0 0 0 | 0 0 0 0 ] Rg=0 Xg=0
new line.L122 bus1=b120.1.2.3.4 bus2=b123.1.2.3.4 length=0.00060068 phases=4 units=km rmatrix=[1.7887 | 1.3197 1.7887 | 1.3197 1.3197 1.7887 | 1.3197 1.3197 1.3197 1.7887 ] xmatrix=[-0.55184 |  -0.62684 -0.55184 | -0.62684 -0.62684 -0.55184 | -0.62684 -0.62684 -0.62684 -0.55184] cmatrix=[0 | 0 0 | 0 0 0 | 0 0 0 0 ] Rg=0 Xg=0
new line.L123 bus1=b120.1.2.3.4 bus2=b124.1.2.3.4 length=0.013713 phases=4 units=km rmatrix=[1.1669 | 0.01691 1.1669 | 0.01691 0.01691 1.1669 | 0.01691 0.01691 0.01691 1.1669 ] xmatrix=[0.087981 |  -1.8917e-05 0.087981 | -1.8917e-05 -1.8917e-05 0.087981 | -1.8917e-05 -1.8917e-05 -1.8917e-05 0.087981] cmatrix=[0 | 0 0 | 0 0 0 | 0 0 0 0 ] Rg=0 Xg=0
new line.L124 bus1=b122.1.2.3.4 bus2=b125.1.2.3.4 length=0.00014223 phases=4 units=km rmatrix=[1.7887 | 1.3197 1.7887 | 1.3197 1.3197 1.7887 | 1.3197 1.3197 1.3197 1.7887 ] xmatrix=[-0.55184 |  -0.62684 -0.55184 | -0.62684 -0.62684 -0.55184 | -0.62684 -0.62684 -0.62684 -0.55184] cmatrix=[0 | 0 0 | 0 0 0 | 0 0 0 0 ] Rg=0 Xg=0
new line.L125 bus1=b122.1.2.3.4 bus2=b126.1.2.3.4 length=0.00014223 phases=4 units=km rmatrix=[1.7887 | 1.3197 1.7887 | 1.3197 1.3197 1.7887 | 1.3197 1.3197 1.3197 1.7887 ] xmatrix=[-0.55184 |  -0.62684 -0.55184 | -0.62684 -0.62684 -0.55184 | -0.62684 -0.62684 -0.62684 -0.55184] cmatrix=[0 | 0 0 | 0 0 0 | 0 0 0 0 ] Rg=0 Xg=0
new line.L126 bus1=b125.1.2.3.4 bus2=b127.1.2.3.4 length=0.0038558 phases=4 units=km rmatrix=[1.7887 | 1.3197 1.7887 | 1.3197 1.3197 1.7887 | 1.3197 1.3197 1.3197 1.7887 ] xmatrix=[-0.55184 |  -0.62684 -0.55184 | -0.62684 -0.62684 -0.55184 | -0.62684 -0.62684 -0.62684 -0.55184] cmatrix=[0 | 0 0 | 0 0 0 | 0 0 0 0 ] Rg=0 Xg=0
new line.L127 bus1=b125.1.2.3.4 bus2=b128.1.2.3.4 length=0.0038558 phases=4 units=km rmatrix=[1.7887 | 1.3197 1.7887 | 1.3197 1.3197 1.7887 | 1.3197 1.3197 1.3197 1.7887 ] xmatrix=[-0.55184 |  -0.62684 -0.55184 | -0.62684 -0.62684 -0.55184 | -0.62684 -0.62684 -0.62684 -0.55184] cmatrix=[0 | 0 0 | 0 0 0 | 0 0 0 0 ] Rg=0 Xg=0
new line.L128 bus1=b125.1.2.3.4 bus2=b129.1.2.3.4 length=0.0024274 phases=4 units=km rmatrix=[1.7887 | 1.3197 1.7887 | 1.3197 1.3197 1.7887 | 1.3197 1.3197 1.3197 1.7887 ] xmatrix=[-0.55184 |  -0.62684 -0.55184 | -0.62684 -0.62684 -0.55184 | -0.62684 -0.62684 -0.62684 -0.55184] cmatrix=[0 | 0 0 | 0 0 0 | 0 0 0 0 ] Rg=0 Xg=0
new line.L129 bus1=b104.1.2.3.4 bus2=b130.1.2.3.4 length=0.015715 phases=4 units=km rmatrix=[1.1669 | 0.01691 1.1669 | 0.01691 0.01691 1.1669 | 0.01691 0.01691 0.01691 1.1669 ] xmatrix=[0.087981 |  -1.8917e-05 0.087981 | -1.8917e-05 -1.8917e-05 0.087981 | -1.8917e-05 -1.8917e-05 -1.8917e-05 0.087981] cmatrix=[0 | 0 0 | 0 0 0 | 0 0 0 0 ] Rg=0 Xg=0
new line.L13 bus1=b10.1.2.3.4 bus2=b14.1.2.3.4 length=0.038351 phases=4 units=km rmatrix=[0.4233 | 0.2573 0.4233 | 0.2573 0.2573 0.4233 | 0.2573 0.2573 0.2573 0.4233 ] xmatrix=[-0.17133 |  -0.23933 -0.17133 | -0.23933 -0.23933 -0.17133 | -0.23933 -0.23933 -0.23933 -0.17133] cmatrix=[0 | 0 0 | 0 0 0 | 0 0 0 0 ] Rg=0 Xg=0
new line.L130 bus1=b104.1.2.3.4 bus2=b131.1.2.3.4 length=0.0047745 phases=4 units=km rmatrix=[0.8455 | 0.5715 0.8455 | 0.5715 0.5715 0.8455 | 0.5715 0.5715 0.5715 0.8455 ] xmatrix=[-0.43853 |  -0.51153 -0.43853 | -0.51153 -0.51153 -0.43853 | -0.51153 -0.51153 -0.51153 -0.43853] cmatrix=[0 | 0 0 | 0 0 0 | 0 0 0 0 ] Rg=0 Xg=0
new line.L131 bus1=b127.1.2.3.4 bus2=b132.1.2.3.4 length=0.0027022 phases=4 units=km rmatrix=[1.7887 | 1.3197 1.7887 | 1.3197 1.3197 1.7887 | 1.3197 1.3197 1.3197 1.7887 ] xmatrix=[-0.55184 |  -0.62684 -0.55184 | -0.62684 -0.62684 -0.55184 | -0.62684 -0.62684 -0.62684 -0.55184] cmatrix=[0 | 0 0 | 0 0 0 | 0 0 0 0 ] Rg=0 Xg=0
new line.L132 bus1=b127.1.2.3.4 bus2=b133.1.2.3.4 length=0.0027022 phases=4 units=km rmatrix=[1.7887 | 1.3197 1.7887 | 1.3197 1.3197 1.7887 | 1.3197 1.3197 1.3197 1.7887 ] xmatrix=[-0.55184 |  -0.62684 -0.55184 | -0.62684 -0.62684 -0.55184 | -0.62684 -0.62684 -0.62684 -0.55184] cmatrix=[0 | 0 0 | 0 0 0 | 0 0 0 0 ] Rg=0 Xg=0
new line.L133 bus1=b132.1.2.3.4 bus2=b134.1.2.3.4 length=0.0054142 phases=4 units=km rmatrix=[1.7887 | 1.3197 1.7887 | 1.3197 1.3197 1.7887 | 1.3197 1.3197 1.3197 1.7887 ] xmatrix=[-0.55184 |  -0.62684 -0.55184 | -0.62684 -0.62684 -0.55184 | -0.62684 -0.62684 -0.62684 -0.55184] cmatrix=[0 | 0 0 | 0 0 0 | 0 0 0 0 ] Rg=0 Xg=0
new line.L134 bus1=b132.1.2.3.4 bus2=b135.1.2.3.4 length=0.00064238 phases=4 units=km rmatrix=[1.7887 | 1.3197 1.7887 | 1.3197 1.3197 1.7887 | 1.3197 1.3197 1.3197 1.7887 ] xmatrix=[-0.55184 |  -0.62684 -0.55184 | -0.62684 -0.62684 -0.55184 | -0.62684 -0.62684 -0.62684 -0.55184] cmatrix=[0 | 0 0 | 0 0 0 | 0 0 0 0 ] Rg=0 Xg=0
new line.L135 bus1=b131.1.2.3.4 bus2=b136.1.2.3.4 length=0.014004 phases=4 units=km rmatrix=[1.1669 | 0.01691 1.1669 | 0.01691 0.01691 1.1669 | 0.01691 0.01691 0.01691 1.1669 ] xmatrix=[0.087981 |  -1.8917e-05 0.087981 | -1.8917e-05 -1.8917e-05 0.087981 | -1.8917e-05 -1.8917e-05 -1.8917e-05 0.087981] cmatrix=[0 | 0 0 | 0 0 0 | 0 0 0 0 ] Rg=0 Xg=0
new line.L136 bus1=b131.1.2.3.4 bus2=b137.1.2.3.4 length=0.009089 phases=4 units=km rmatrix=[0.8455 | 0.5715 0.8455 | 0.5715 0.5715 0.8455 | 0.5715 0.5715 0.5715 0.8455 ] xmatrix=[-0.43853 |  -0.51153 -0.43853 | -0.51153 -0.51153 -0.43853 | -0.51153 -0.51153 -0.51153 -0.43853] cmatrix=[0 | 0 0 | 0 0 0 | 0 0 0 0 ] Rg=0 Xg=0
new line.L137 bus1=b134.1.2.3.4 bus2=b138.1.2.3.4 length=0.0048283 phases=4 units=km rmatrix=[1.7887 | 1.3197 1.7887 | 1.3197 1.3197 1.7887 | 1.3197 1.3197 1.3197 1.7887 ] xmatrix=[-0.55184 |  -0.62684 -0.55184 | -0.62684 -0.62684 -0.55184 | -0.62684 -0.62684 -0.62684 -0.55184] cmatrix=[0 | 0 0 | 0 0 0 | 0 0 0 0 ] Rg=0 Xg=0
new line.L138 bus1=b134.1.2.3.4 bus2=b139.1.2.3.4 length=0.0048283 phases=4 units=km rmatrix=[1.7887 | 1.3197 1.7887 | 1.3197 1.3197 1.7887 | 1.3197 1.3197 1.3197 1.7887 ] xmatrix=[-0.55184 |  -0.62684 -0.55184 | -0.62684 -0.62684 -0.55184 | -0.62684 -0.62684 -0.62684 -0.55184] cmatrix=[0 | 0 0 | 0 0 0 | 0 0 0 0 ] Rg=0 Xg=0
new line.L139 bus1=b134.1.2.3.4 bus2=b140.1.2.3.4 length=0.0047719 phases=4 units=km rmatrix=[1.7887 | 1.3197 1.7887 | 1.3197 1.3197 1.7887 | 1.3197 1.3197 1.3197 1.7887 ] xmatrix=[-0.55184 |  -0.62684 -0.55184 | -0.62684 -0.62684 -0.55184 | -0.62684 -0.62684 -0.62684 -0.55184] cmatrix=[0 | 0 0 | 0 0 0 | 0 0 0 0 ] Rg=0 Xg=0
new line.L14 bus1=b13.1.2.3.4 bus2=b15.1.2.3.4 length=0.0033548 phases=4 units=km rmatrix=[1.6954 | 1.2494 1.6954 | 1.2494 1.2494 1.6954 | 1.2494 1.2494 1.2494 1.6954 ] xmatrix=[-0.5404 |  -0.6114 -0.5404 | -0.6114 -0.6114 -0.5404 | -0.6114 -0.6114 -0.6114 -0.5404] cmatrix=[0 | 0 0 | 0 0 0 | 0 0 0 0 ] Rg=0 Xg=0
new line.L140 bus1=b135.1.2.3.4 bus2=b141.1.2.3.4 length=0.01441 phases=4 units=km rmatrix=[1.1669 | 0.01691 1.1669 | 0.01691 0.01691 1.1669 | 0.01691 0.01691 0.01691 1.1669 ] xmatrix=[0.087981 |  -1.8917e-05 0.087981 | -1.8917e-05 -1.8917e-05 0.087981 | -1.8917e-05 -1.8917e-05 -1.8917e-05 0.087981] cmatrix=[0 | 0 0 | 0 0 0 | 0 0 0 0 ] Rg=0 Xg=0
new line.L141 bus1=b135.1.2.3.4 bus2=b142.1.2.3.4 length=0.011664 phases=4 units=km rmatrix=[1.1669 | 0.01691 1.1669 | 0.01691 0.01691 1.1669 | 0.01691 0.01691 0.01691 1.1669 ] xmatrix=[0.087981 |  -1.8917e-05 0.087981 | -1.8917e-05 -1.8917e-05 0.087981 | -1.8917e-05 -1.8917e-05 -1.8917e-05 0.087981] cmatrix=[0 | 0 0 | 0 0 0 | 0 0 0 0 ] Rg=0 Xg=0
new line.L142 bus1=b138.1.2.3.4 bus2=b143.1.2.3.4 length=0.016051 phases=4 units=km rmatrix=[1.257 | 0 1.257 | 0 0 1.257 | 0 0 0 1.257 ] xmatrix=[0.085 |  1.3878e-17 0.085 | 1.3878e-17 1.3878e-17 0.085 | 1.3878e-17 1.3878e-17 1.3878e-17 0.085] cmatrix=[0 | 0 0 | 0 0 0 | 0 0 0 0 ] Rg=0 Xg=0
new line.L143 bus1=b138.1.2.3.4 bus2=b144.1.2.3.4 length=0.0031088 phases=4 units=km rmatrix=[1.7887 | 1.3197 1.7887 | 1.3197 1.3197 1.7887 | 1.3197 1.3197 1.3197 1.7887 ] xmatrix=[-0.55184 |  -0.62684 -0.55184 | -0.62684 -0.62684 -0.55184 | -0.62684 -0.62684 -0.62684 -0.55184] cmatrix=[0 | 0 0 | 0 0 0 | 0 0 0 0 ] Rg=0 Xg=0
new line.L144 bus1=b138.1.2.3.4 bus2=b145.1.2.3.4 length=0.0031088 phases=4 units=km rmatrix=[1.7887 | 1.3197 1.7887 | 1.3197 1.3197 1.7887 | 1.3197 1.3197 1.3197 1.7887 ] xmatrix=[-0.55184 |  -0.62684 -0.55184 | -0.62684 -0.62684 -0.55184 | -0.62684 -0.62684 -0.62684 -0.55184] cmatrix=[0 | 0 0 | 0 0 0 | 0 0 0 0 ] Rg=0 Xg=0
new line.L145 bus1=b137.1.2.3.4 bus2=b146.1.2.3.4 length=0.013769 phases=4 units=km rmatrix=[1.1669 | 0.01691 1.1669 | 0.01691 0.01691 1.1669 | 0.01691 0.01691 0.01691 1.1669 ] xmatrix=[0.087981 |  -1.8917e-05 0.087981 | -1.8917e-05 -1.8917e-05 0.087981 | -1.8917e-05 -1.8917e-05 -1.8917e-05 0.087981] cmatrix=[0 | 0 0 | 0 0 0 | 0 0 0 0 ] Rg=0 Xg=0
new line.L146 bus1=b137.1.2.3.4 bus2=b147.1.2.3.4 length=0.0027011 phases=4 units=km rmatrix=[0.8455 | 0.5715 0.8455 | 0.5715 0.5715 0.8455 | 0.5715 0.5715 0.5715 0.8455 ] xmatrix=[-0.43853 |  -0.51153 -0.43853 | -0.51153 -0.51153 -0.43853 | -0.51153 -0.51153 -0.51153 -0.43853] cmatrix=[0 | 0 0 | 0 0 0 | 0 0 0 0 ] Rg=0 Xg=0
new line.L147 bus1=b124.1.2.3.4 bus2=b148.1.2.3.4 length=0.0060249 phases=4 units=km rmatrix=[1.1669 | 0.01691 1.1669 | 0.01691 0.01691 1.1669 | 0.01691 0.01691 0.01691 1.1669 ] xmatrix=[0.087981 |  -1.8917e-05 0.087981 | -1.8917e-05 -1.8917e-05 0.087981 | -1.8917e-05 -1.8917e-05 -1.8917e-05 0.087981] cmatrix=[0 | 0 0 | 0 0 0 | 0 0 0 0 ] Rg=0 Xg=0
new line.L148 bus1=b124.1.2.3.4 bus2=b149.1.2.3.4 length=0.0053466 phases=4 units=km rmatrix=[1.1669 | 0.01691 1.1669 | 0.01691 0.01691 1.1669 | 0.01691 0.01691 0.01691 1.1669 ] xmatrix=[0.087981 |  -1.8917e-05 0.087981 | -1.8917e-05 -1.8917e-05 0.087981 | -1.8917e-05 -1.8917e-05 -1.8917e-05 0.087981] cmatrix=[0 | 0 0 | 0 0 0 | 0 0 0 0 ] Rg=0 Xg=0
new line.L149 bus1=b147.1.2.3.4 bus2=b150.1.2.3.4 length=0.01519 phases=4 units=km rmatrix=[1.1669 | 0.01691 1.1669 | 0.01691 0.01691 1.1669 | 0.01691 0.01691 0.01691 1.1669 ] xmatrix=[0.087981 |  -1.8917e-05 0.087981 | -1.8917e-05 -1.8917e-05 0.087981 | -1.8917e-05 -1.8917e-05 -1.8917e-05 0.087981] cmatrix=[0 | 0 0 | 0 0 0 | 0 0 0 0 ] Rg=0 Xg=0
new line.L15 bus1=b13.1.2.3.4 bus2=b16.1.2.3.4 length=0.001278 phases=4 units=km rmatrix=[1.6954 | 1.2494 1.6954 | 1.2494 1.2494 1.6954 | 1.2494 1.2494 1.2494 1.6954 ] xmatrix=[-0.5404 |  -0.6114 -0.5404 | -0.6114 -0.6114 -0.5404 | -0.6114 -0.6114 -0.6114 -0.5404] cmatrix=[0 | 0 0 | 0 0 0 | 0 0 0 0 ] Rg=0 Xg=0
new line.L150 bus1=b147.1.2.3.4 bus2=b151.1.2.3.4 length=0.0096296 phases=4 units=km rmatrix=[0.8455 | 0.5715 0.8455 | 0.5715 0.5715 0.8455 | 0.5715 0.5715 0.5715 0.8455 ] xmatrix=[-0.43853 |  -0.51153 -0.43853 | -0.51153 -0.51153 -0.43853 | -0.51153 -0.51153 -0.51153 -0.43853] cmatrix=[0 | 0 0 | 0 0 0 | 0 0 0 0 ] Rg=0 Xg=0
new line.L151 bus1=b151.1.2.3.4 bus2=b152.1.2.3.4 length=0.0081445 phases=4 units=km rmatrix=[1.1669 | 0.01691 1.1669 | 0.01691 0.01691 1.1669 | 0.01691 0.01691 0.01691 1.1669 ] xmatrix=[0.087981 |  -1.8917e-05 0.087981 | -1.8917e-05 -1.8917e-05 0.087981 | -1.8917e-05 -1.8917e-05 -1.8917e-05 0.087981] cmatrix=[0 | 0 0 | 0 0 0 | 0 0 0 0 ] Rg=0 Xg=0
new line.L152 bus1=b151.1.2.3.4 bus2=b153.1.2.3.4 length=0.010525 phases=4 units=km rmatrix=[0.8455 | 0.5715 0.8455 | 0.5715 0.5715 0.8455 | 0.5715 0.5715 0.5715 0.8455 ] xmatrix=[-0.43853 |  -0.51153 -0.43853 | -0.51153 -0.51153 -0.43853 | -0.51153 -0.51153 -0.51153 -0.43853] cmatrix=[0 | 0 0 | 0 0 0 | 0 0 0 0 ] Rg=0 Xg=0
new line.L153 bus1=b152.1.2.3.4 bus2=b154.1.2.3.4 length=0.0073579 phases=4 units=km rmatrix=[1.1669 | 0.01691 1.1669 | 0.01691 0.01691 1.1669 | 0.01691 0.01691 0.01691 1.1669 ] xmatrix=[0.087981 |  -1.8917e-05 0.087981 | -1.8917e-05 -1.8917e-05 0.087981 | -1.8917e-05 -1.8917e-05 -1.8917e-05 0.087981] cmatrix=[0 | 0 0 | 0 0 0 | 0 0 0 0 ] Rg=0 Xg=0
new line.L154 bus1=b152.1.2.3.4 bus2=b155.1.2.3.4 length=0.0064573 phases=4 units=km rmatrix=[1.1669 | 0.01691 1.1669 | 0.01691 0.01691 1.1669 | 0.01691 0.01691 0.01691 1.1669 ] xmatrix=[0.087981 |  -1.8917e-05 0.087981 | -1.8917e-05 -1.8917e-05 0.087981 | -1.8917e-05 -1.8917e-05 -1.8917e-05 0.087981] cmatrix=[0 | 0 0 | 0 0 0 | 0 0 0 0 ] Rg=0 Xg=0
new line.L155 bus1=b153.1.2.3.4 bus2=b156.1.2.3.4 length=0.014975 phases=4 units=km rmatrix=[1.1669 | 0.01691 1.1669 | 0.01691 0.01691 1.1669 | 0.01691 0.01691 0.01691 1.1669 ] xmatrix=[0.087981 |  -1.8917e-05 0.087981 | -1.8917e-05 -1.8917e-05 0.087981 | -1.8917e-05 -1.8917e-05 -1.8917e-05 0.087981] cmatrix=[0 | 0 0 | 0 0 0 | 0 0 0 0 ] Rg=0 Xg=0
new line.L156 bus1=b153.1.2.3.4 bus2=b157.1.2.3.4 length=0.0021907 phases=4 units=km rmatrix=[0.8455 | 0.5715 0.8455 | 0.5715 0.5715 0.8455 | 0.5715 0.5715 0.5715 0.8455 ] xmatrix=[-0.43853 |  -0.51153 -0.43853 | -0.51153 -0.51153 -0.43853 | -0.51153 -0.51153 -0.51153 -0.43853] cmatrix=[0 | 0 0 | 0 0 0 | 0 0 0 0 ] Rg=0 Xg=0
new line.L157 bus1=b157.1.2.3.4 bus2=b158.1.2.3.4 length=0.0024 phases=4 units=km rmatrix=[1.7887 | 1.3197 1.7887 | 1.3197 1.3197 1.7887 | 1.3197 1.3197 1.3197 1.7887 ] xmatrix=[-0.55184 |  -0.62684 -0.55184 | -0.62684 -0.62684 -0.55184 | -0.62684 -0.62684 -0.62684 -0.55184] cmatrix=[0 | 0 0 | 0 0 0 | 0 0 0 0 ] Rg=0 Xg=0
new line.L158 bus1=b158.1.2.3.4 bus2=b159.1.2.3.4 length=0.0063308 phases=4 units=km rmatrix=[1.7887 | 1.3197 1.7887 | 1.3197 1.3197 1.7887 | 1.3197 1.3197 1.3197 1.7887 ] xmatrix=[-0.55184 |  -0.62684 -0.55184 | -0.62684 -0.62684 -0.55184 | -0.62684 -0.62684 -0.62684 -0.55184] cmatrix=[0 | 0 0 | 0 0 0 | 0 0 0 0 ] Rg=0 Xg=0
new line.L159 bus1=b158.1.2.3.4 bus2=b160.1.2.3.4 length=0.0029479 phases=4 units=km rmatrix=[1.7887 | 1.3197 1.7887 | 1.3197 1.3197 1.7887 | 1.3197 1.3197 1.3197 1.7887 ] xmatrix=[-0.55184 |  -0.62684 -0.55184 | -0.62684 -0.62684 -0.55184 | -0.62684 -0.62684 -0.62684 -0.55184] cmatrix=[0 | 0 0 | 0 0 0 | 0 0 0 0 ] Rg=0 Xg=0
new line.L16 bus1=b15.1.2.3.4 bus2=b17.1.2.3.4 length=0.013376 phases=4 units=km rmatrix=[1.6954 | 1.2494 1.6954 | 1.2494 1.2494 1.6954 | 1.2494 1.2494 1.2494 1.6954 ] xmatrix=[-0.5404 |  -0.6114 -0.5404 | -0.6114 -0.6114 -0.5404 | -0.6114 -0.6114 -0.6114 -0.5404] cmatrix=[0 | 0 0 | 0 0 0 | 0 0 0 0 ] Rg=0 Xg=0
new line.L160 bus1=b159.1.2.3.4 bus2=b161.1.2.3.4 length=0.015246 phases=4 units=km rmatrix=[1.7887 | 1.3197 1.7887 | 1.3197 1.3197 1.7887 | 1.3197 1.3197 1.3197 1.7887 ] xmatrix=[-0.55184 |  -0.62684 -0.55184 | -0.62684 -0.62684 -0.55184 | -0.62684 -0.62684 -0.62684 -0.55184] cmatrix=[0 | 0 0 | 0 0 0 | 0 0 0 0 ] Rg=0 Xg=0
new line.L161 bus1=b159.1.2.3.4 bus2=b162.1.2.3.4 length=0.012748 phases=4 units=km rmatrix=[1.1669 | 0.01691 1.1669 | 0.01691 0.01691 1.1669 | 0.01691 0.01691 0.01691 1.1669 ] xmatrix=[0.087981 |  -1.8917e-05 0.087981 | -1.8917e-05 -1.8917e-05 0.087981 | -1.8917e-05 -1.8917e-05 -1.8917e-05 0.087981] cmatrix=[0 | 0 0 | 0 0 0 | 0 0 0 0 ] Rg=0 Xg=0
new line.L162 bus1=b161.1.2.3.4 bus2=b163.1.2.3.4 length=0.017007 phases=4 units=km rmatrix=[1.7887 | 1.3197 1.7887 | 1.3197 1.3197 1.7887 | 1.3197 1.3197 1.3197 1.7887 ] xmatrix=[-0.55184 |  -0.62684 -0.55184 | -0.62684 -0.62684 -0.55184 | -0.62684 -0.62684 -0.62684 -0.55184] cmatrix=[0 | 0 0 | 0 0 0 | 0 0 0 0 ] Rg=0 Xg=0
new line.L163 bus1=b161.1.2.3.4 bus2=b164.1.2.3.4 length=0.01126 phases=4 units=km rmatrix=[1.1669 | 0.01691 1.1669 | 0.01691 0.01691 1.1669 | 0.01691 0.01691 0.01691 1.1669 ] xmatrix=[0.087981 |  -1.8917e-05 0.087981 | -1.8917e-05 -1.8917e-05 0.087981 | -1.8917e-05 -1.8917e-05 -1.8917e-05 0.087981] cmatrix=[0 | 0 0 | 0 0 0 | 0 0 0 0 ] Rg=0 Xg=0
new line.L164 bus1=b164.1.2.3.4 bus2=b165.1.2.3.4 length=0.0067778 phases=4 units=km rmatrix=[1.1669 | 0.01691 1.1669 | 0.01691 0.01691 1.1669 | 0.01691 0.01691 0.01691 1.1669 ] xmatrix=[0.087981 |  -1.8917e-05 0.087981 | -1.8917e-05 -1.8917e-05 0.087981 | -1.8917e-05 -1.8917e-05 -1.8917e-05 0.087981] cmatrix=[0 | 0 0 | 0 0 0 | 0 0 0 0 ] Rg=0 Xg=0
new line.L165 bus1=b164.1.2.3.4 bus2=b166.1.2.3.4 length=0.0057562 phases=4 units=km rmatrix=[1.1669 | 0.01691 1.1669 | 0.01691 0.01691 1.1669 | 0.01691 0.01691 0.01691 1.1669 ] xmatrix=[0.087981 |  -1.8917e-05 0.087981 | -1.8917e-05 -1.8917e-05 0.087981 | -1.8917e-05 -1.8917e-05 -1.8917e-05 0.087981] cmatrix=[0 | 0 0 | 0 0 0 | 0 0 0 0 ] Rg=0 Xg=0
new line.L166 bus1=b163.1.2.3.4 bus2=b167.1.2.3.4 length=0.01946 phases=4 units=km rmatrix=[1.7887 | 1.3197 1.7887 | 1.3197 1.3197 1.7887 | 1.3197 1.3197 1.3197 1.7887 ] xmatrix=[-0.55184 |  -0.62684 -0.55184 | -0.62684 -0.62684 -0.55184 | -0.62684 -0.62684 -0.62684 -0.55184] cmatrix=[0 | 0 0 | 0 0 0 | 0 0 0 0 ] Rg=0 Xg=0
new line.L167 bus1=b163.1.2.3.4 bus2=b168.1.2.3.4 length=0.010873 phases=4 units=km rmatrix=[1.1669 | 0.01691 1.1669 | 0.01691 0.01691 1.1669 | 0.01691 0.01691 0.01691 1.1669 ] xmatrix=[0.087981 |  -1.8917e-05 0.087981 | -1.8917e-05 -1.8917e-05 0.087981 | -1.8917e-05 -1.8917e-05 -1.8917e-05 0.087981] cmatrix=[0 | 0 0 | 0 0 0 | 0 0 0 0 ] Rg=0 Xg=0
new line.L168 bus1=b168.1.2.3.4 bus2=b169.1.2.3.4 length=0.007129 phases=4 units=km rmatrix=[1.1669 | 0.01691 1.1669 | 0.01691 0.01691 1.1669 | 0.01691 0.01691 0.01691 1.1669 ] xmatrix=[0.087981 |  -1.8917e-05 0.087981 | -1.8917e-05 -1.8917e-05 0.087981 | -1.8917e-05 -1.8917e-05 -1.8917e-05 0.087981] cmatrix=[0 | 0 0 | 0 0 0 | 0 0 0 0 ] Rg=0 Xg=0
new line.L169 bus1=b168.1.2.3.4 bus2=b170.1.2.3.4 length=0.0056581 phases=4 units=km rmatrix=[1.1669 | 0.01691 1.1669 | 0.01691 0.01691 1.1669 | 0.01691 0.01691 0.01691 1.1669 ] xmatrix=[0.087981 |  -1.8917e-05 0.087981 | -1.8917e-05 -1.8917e-05 0.087981 | -1.8917e-05 -1.8917e-05 -1.8917e-05 0.087981] cmatrix=[0 | 0 0 | 0 0 0 | 0 0 0 0 ] Rg=0 Xg=0
new line.L17 bus1=b15.1.2.3.4 bus2=b18.1.2.3.4 length=0.0082583 phases=4 units=km rmatrix=[1.1669 | 0.01691 1.1669 | 0.01691 0.01691 1.1669 | 0.01691 0.01691 0.01691 1.1669 ] xmatrix=[0.087981 |  -1.8917e-05 0.087981 | -1.8917e-05 -1.8917e-05 0.087981 | -1.8917e-05 -1.8917e-05 -1.8917e-05 0.087981] cmatrix=[0 | 0 0 | 0 0 0 | 0 0 0 0 ] Rg=0 Xg=0
new line.L170 bus1=b150.1.2.3.4 bus2=b171.1.2.3.4 length=0.0022918 phases=4 units=km rmatrix=[1.1669 | 0.01691 1.1669 | 0.01691 0.01691 1.1669 | 0.01691 0.01691 0.01691 1.1669 ] xmatrix=[0.087981 |  -1.8917e-05 0.087981 | -1.8917e-05 -1.8917e-05 0.087981 | -1.8917e-05 -1.8917e-05 -1.8917e-05 0.087981] cmatrix=[0 | 0 0 | 0 0 0 | 0 0 0 0 ] Rg=0 Xg=0
new line.L171 bus1=b150.1.2.3.4 bus2=b172.1.2.3.4 length=0.0097761 phases=4 units=km rmatrix=[1.1669 | 0.01691 1.1669 | 0.01691 0.01691 1.1669 | 0.01691 0.01691 0.01691 1.1669 ] xmatrix=[0.087981 |  -1.8917e-05 0.087981 | -1.8917e-05 -1.8917e-05 0.087981 | -1.8917e-05 -1.8917e-05 -1.8917e-05 0.087981] cmatrix=[0 | 0 0 | 0 0 0 | 0 0 0 0 ] Rg=0 Xg=0
new line.L172 bus1=b167.1.2.3.4 bus2=b173.1.2.3.4 length=0.010772 phases=4 units=km rmatrix=[1.1669 | 0.01691 1.1669 | 0.01691 0.01691 1.1669 | 0.01691 0.01691 0.01691 1.1669 ] xmatrix=[0.087981 |  -1.8917e-05 0.087981 | -1.8917e-05 -1.8917e-05 0.087981 | -1.8917e-05 -1.8917e-05 -1.8917e-05 0.087981] cmatrix=[0 | 0 0 | 0 0 0 | 0 0 0 0 ] Rg=0 Xg=0
new line.L173 bus1=b167.1.2.3.4 bus2=b174.1.2.3.4 length=0.0028031 phases=4 units=km rmatrix=[0.62302 | 0.30102 0.62302 | 0.30102 0.30102 0.62302 | 0.30102 0.30102 0.30102 0.62302 ] xmatrix=[0.03408 |  -0.03992 0.03408 | -0.03992 -0.03992 0.03408 | -0.03992 -0.03992 -0.03992 0.03408] cmatrix=[0 | 0 0 | 0 0 0 | 0 0 0 0 ] Rg=0 Xg=0
new line.L174 bus1=b174.1.2.3.4 bus2=b175.1.2.3.4 length=0.0030749 phases=4 units=km rmatrix=[1.7887 | 1.3197 1.7887 | 1.3197 1.3197 1.7887 | 1.3197 1.3197 1.3197 1.7887 ] xmatrix=[-0.55184 |  -0.62684 -0.55184 | -0.62684 -0.62684 -0.55184 | -0.62684 -0.62684 -0.62684 -0.55184] cmatrix=[0 | 0 0 | 0 0 0 | 0 0 0 0 ] Rg=0 Xg=0
new line.L175 bus1=b174.1.2.3.4 bus2=b176.1.2.3.4 length=0.0030749 phases=4 units=km rmatrix=[1.7887 | 1.3197 1.7887 | 1.3197 1.3197 1.7887 | 1.3197 1.3197 1.3197 1.7887 ] xmatrix=[-0.55184 |  -0.62684 -0.55184 | -0.62684 -0.62684 -0.55184 | -0.62684 -0.62684 -0.62684 -0.55184] cmatrix=[0 | 0 0 | 0 0 0 | 0 0 0 0 ] Rg=0 Xg=0
new line.L176 bus1=b175.1.2.3.4 bus2=b177.1.2.3.4 length=0.0025782 phases=4 units=km rmatrix=[1.7887 | 1.3197 1.7887 | 1.3197 1.3197 1.7887 | 1.3197 1.3197 1.3197 1.7887 ] xmatrix=[-0.55184 |  -0.62684 -0.55184 | -0.62684 -0.62684 -0.55184 | -0.62684 -0.62684 -0.62684 -0.55184] cmatrix=[0 | 0 0 | 0 0 0 | 0 0 0 0 ] Rg=0 Xg=0
new line.L177 bus1=b175.1.2.3.4 bus2=b178.1.2.3.4 length=0.0025782 phases=4 units=km rmatrix=[1.7887 | 1.3197 1.7887 | 1.3197 1.3197 1.7887 | 1.3197 1.3197 1.3197 1.7887 ] xmatrix=[-0.55184 |  -0.62684 -0.55184 | -0.62684 -0.62684 -0.55184 | -0.62684 -0.62684 -0.62684 -0.55184] cmatrix=[0 | 0 0 | 0 0 0 | 0 0 0 0 ] Rg=0 Xg=0
new line.L178 bus1=b177.1.2.3.4 bus2=b179.1.2.3.4 length=0.0027715 phases=4 units=km rmatrix=[1.7887 | 1.3197 1.7887 | 1.3197 1.3197 1.7887 | 1.3197 1.3197 1.3197 1.7887 ] xmatrix=[-0.55184 |  -0.62684 -0.55184 | -0.62684 -0.62684 -0.55184 | -0.62684 -0.62684 -0.62684 -0.55184] cmatrix=[0 | 0 0 | 0 0 0 | 0 0 0 0 ] Rg=0 Xg=0
new line.L179 bus1=b177.1.2.3.4 bus2=b180.1.2.3.4 length=0.0027715 phases=4 units=km rmatrix=[1.7887 | 1.3197 1.7887 | 1.3197 1.3197 1.7887 | 1.3197 1.3197 1.3197 1.7887 ] xmatrix=[-0.55184 |  -0.62684 -0.55184 | -0.62684 -0.62684 -0.55184 | -0.62684 -0.62684 -0.62684 -0.55184] cmatrix=[0 | 0 0 | 0 0 0 | 0 0 0 0 ] Rg=0 Xg=0